Circuit: * D:\Download\Vegapod\Vegapod 24\LtSpice17\BMS_Using_Differential_Amp_Balance_Circuit.asc

Limiting rise time of source v7 to 0.0001
Limiting fall time of source v7 to 0.0001
Direct Newton iteration failed to find .op point.  (Use ".option noopiter" to skip.)
Starting Gmin stepping
Increasing initial diagonal Gmin to 100
Increasing initial diagonal Gmin to 1000
Gmin = 1000
Gmin = 107.374
Gmin = 11.5292
Gmin = 1.23794
Gmin = 0.132923
Gmin = 0.0142725
Gmin = 0.0015325
Gmin = 0.00016455
Gmin = 1.76685e-005
Gmin = 1.89714e-006
Gmin = 2.03704e-007
vernier = 0.5
vernier = 0.25
vernier = 0.125
vernier = 0.0625
vernier = 0.03125
vernier = 0.015625
vernier = 0.0078125
vernier = 0.00390625
vernier = 0.00195313
Gmin = 2.03704e-007
vernier = 0.000976563
vernier = 0.000488281
Gmin = 0
Gmin stepping failed

Starting source stepping with srcstepmethod=0
Could not converge to DC with sources off!
Starting source stepping with srcstepmethod=1
Source Step = 3.0303%
Source Step = 33.3333%
Source Step = 63.6364%
Source Step = 93.9394%
Source stepping succeeded in finding the operating point.


Date: Sat Feb 17 19:02:17 2024
Total elapsed time: 1.451 seconds.

tnom = 27
temp = 27
method = modified trap
totiter = 112978
traniter = 110525
tranpoints = 43871
accept = 29609
rejected = 14262
matrix size = 59
fillins = 76
solver = Alternate
Thread vector: 9.0/4.8[2] 2.2/2.0[1] 0.9/1.2[1] 0.6/1.0[1]  2592/500
Matrix Compiler1: 7.72 KB object code size  1.9/1.6/[1.1]
Matrix Compiler2: off  [0.6]/0.8/0.9

