Circuit: * D:\Download\Vegapod\Vegapod 24\LtSpice17\BMS_Using_Differential_Amp_Balance_Circuit.asc

Limiting rise time of source v7 to 0.0001
Limiting fall time of source v7 to 0.0001
WARNING: Less than two connections to node NC_01.  This node is used by Q1.
Direct Newton iteration for .op point succeeded.

Date: Tue Mar 19 04:02:32 2024
Total elapsed time: 0.399 seconds.

tnom = 27
temp = 27
method = modified trap
totiter = 48477
traniter = 48445
tranpoints = 17084
accept = 13124
rejected = 3960
matrix size = 36
fillins = 28
solver = Alternate
Matrix Compiler1: 3.81 KB object code size  0.6/0.5/[0.4]
Matrix Compiler2: off  [0.3]/0.4/0.4

