Circuit: * D:\Download\Vegapod\Vegapod 24\LtSpice17\Chg_DSCHG_Controller.asc

WARNING: Node N002 is floating.
WARNING: Node N019 is floating.

Direct Newton iteration for .op point succeeded.

Date: Sat Feb 17 19:28:03 2024
Total elapsed time: 0.140 seconds.

tnom = 27
temp = 27
method = modified trap
totiter = 3763
traniter = 3740
tranpoints = 1427
accept = 1317
rejected = 110
matrix size = 54
fillins = 64
solver = Alternate
Matrix Compiler1: 9.14 KB object code size  1.4/1.1/[0.8]
Matrix Compiler2: 6.81 KB object code size  0.7/0.8/[0.6]

