Circuit: * D:\Download\Vegapod\Vegapod 24\LtSpice17\Draft1.asc

C1: Increased Cpar to 1e-013
Direct Newton iteration failed to find .op point.  (Use ".option noopiter" to skip.)
Starting Gmin stepping
Gmin = 10
Gmin = 1.07374
Gmin = 0.115292
Gmin = 0.0123794
Gmin = 0.00132923
Gmin = 0.000142725
Gmin = 1.5325e-005
Gmin = 1.6455e-006
Gmin = 1.76685e-007
Gmin = 1.89714e-008
Gmin = 2.03704e-009
Gmin = 2.18725e-010
Gmin = 2.34854e-011
Gmin = 2.52173e-012
Gmin = 2.70769e-013
Gmin = 0
Gmin stepping succeeded in finding the operating point.

Changing Tseed to 9.76562e-009
Changing Tseed to 9.76563e-011
Changing Tseed to 9.76562e-008
Changing Tseed to 9.76562e-012
Changing Tseed to 9.76563e-007

Date: Sun Aug 11 01:32:23 2024
Total elapsed time: 0.172 seconds.

tnom = 27
temp = 27
method = modified trap
totiter = 2925
traniter = 2192
tranpoints = 1037
accept = 1032
rejected = 0
matrix size = 96
fillins = 100
solver = Alternate
Matrix Compiler1: 15.82 KB object code size  2.7/2.0/[1.7]
Matrix Compiler2: 11.22 KB object code size  1.2/1.5/[0.9]

