Circuit: * D:\Download\Vegapod\Vegapod 24\LtSpice17\Inverter Trying to measure Current.asc

C11: Increased Cpar to 2e-012
C5: Increased Cpar to 4.4e-012
Limiting rise time of source v5 to 1e-007
Limiting fall time of source v5 to 1e-007
Limiting rise time of source v2 to 1e-007
Limiting fall time of source v2 to 1e-007
Direct Newton iteration for .op point succeeded.
Heightened Def Con from 0.000307215 to 0.000307215

Date: Sun Jun 23 03:14:04 2024
Total elapsed time: 8.828 seconds.

tnom = 27
temp = 27
method = modified trap
totiter = 288789
traniter = 288747
tranpoints = 75955
accept = 56542
rejected = 19414
matrix size = 149
fillins = 258
solver = Alternate
Matrix Compiler1: 32.64 KB object code size  4.9/3.9/[3.1]
Matrix Compiler2: 20.33 KB object code size  2.0/2.5/[1.6]

